Circuit: * source LM393

Fatal Error: Unknown subcircuit called in:
   x_u1 in+ in- vcc gnd out lm2903b
